/*--------------------------------*- C++ -*----------------------------------*\
  =========                 |
  \\      /  F ield         | OpenFOAM: The Open Source CFD Toolbox
   \\    /   O peration     | Website:  https://openfoam.org
    \\  /    A nd           | Version:  8
     \\/     M anipulation  |
\*---------------------------------------------------------------------------*/
FoamFile
{
    version     2.0;
    format      ascii;
    class       volScalarField;
    location    "0";
    object      nut;
}
// * * * * * * * * * * * * * * * * * * * * * * * * * * * * * * * * * * * * * //

dimensions      [0 2 -1 0 0 0 0];

internalField   uniform 0;

boundaryField
{
    /*
    inlet
    {
        type            calculated;
        value           uniform 0;
    }
    outlet
    {
        type            calculated;
        value           uniform 0;
    }
    bottomWall
    {
        type            calculated;
        value           uniform 0;
    }
    topWall
    {
        type            calculated;
        value           uniform 0;
    }
    prismWall
    {
        type            nutkWallFunction;
        value           uniform 0;
    }
    defaultFaces
    {
        type            empty;
    }
    */
    
    

    
    minY
    {
        type            empty;
    }
    maxY
    {
        type            calculated;
        value           uniform 0;
    }
    theWalls
    {
        type            nutkWallFunction;
        value           uniform 0;
    }
    minX
    {
        type            calculated;
        value           uniform 0;
    }
    maxX
    {
        type            waveTransmissive;
        value           $internalField;//uniform 1e-3;
        gamma           1.3271193649;
    }
    minZ
    {
        type           wedge;//wedge;
    }
    maxZ
    {
        type           wedge;//wedge;
    }
    /*defaultFaces
    {
        type        empty;
    }*/
}


// ************************************************************************* //
